powerflow/autotest/test_balanced_stepup_D-D_phA.glm
// $id$
//	Copyright (C) 2008 Battelle Memorial Institute

//  An example case of IEEE 4 node system using balanced step up D-D tranformer.
//  Using one phase-A line at the end node,
//  Using static load at the node 4.

clock {
	timestamp '2000-01-01 0:00:00';
	timezone EST+5EDT;
}

#define stylesheet="C:\Documents and Settings\D3Y074\My Documents\GridLab-D\trunk\VS2005\gridlabd-2_0"
#set relax_naming_rules=1
module powerflow {
	solver_method NR;
};
module assert;

object overhead_line_conductor:100 {
	geometric_mean_radius 0.0244;
	resistance 0.306;
}

object overhead_line_conductor:101 {
	geometric_mean_radius 0.00814;
	resistance 0.592;
}

object line_spacing:200 {
	distance_AB 2.5;
	distance_BC 4.5;
	distance_AC 7.0;
	distance_AN 5.656854;
	distance_BN 4.272002;
	distance_CN 5.0;
}

object line_spacing:201{
//	distance_AN 0.0;
}

object line_configuration:300 {
	conductor_A overhead_line_conductor:100;
	conductor_B overhead_line_conductor:100;
	conductor_C overhead_line_conductor:100;
	conductor_N overhead_line_conductor:101;
	spacing line_spacing:200;
}

object line_configuration:301{
	conductor_A overhead_line_conductor:100;
	spacing line_spacing:201;
}

object transformer_configuration:400 {
	connect_type DELTA_DELTA;
	power_rating 6000;
	primary_voltage 12470;
	secondary_voltage 24900;
	resistance 0.01;
	reactance 0.06;
}

object node:1 {
	phases "ABCD";
	bustype SWING;
	voltage_A +7199.558+0.000j;
	voltage_B -3599.779-6235.000j;
	voltage_C -3599.779+6235.000j;
	nominal_voltage 7200;
}

object overhead_line:12 {
	phases "ABCD";
	from node:1;
	to node:2;
	length 2000;
	configuration line_configuration:300;
}

object node:2 {
	phases "ABCD";
	voltage_A +7199.558+0.000j;
	voltage_B -3599.779-6235.000j;
	voltage_C -3599.779+6235.000j;
	nominal_voltage 7200;
	object complex_assert {
		target voltage_AB;
		within 5;
		value +12398.4+29.9927d ;
	};
	object complex_assert {
		target voltage_BC;
		within 5;
		value +12482.1-90.0323d d;
	};
	object complex_assert {
		target voltage_CA;
		within 5;
		value +12435.8+149.646d ;
	};
}

object transformer:23 {
	phases "ABCD";
	from node:2;
	to node:3;
	configuration transformer_configuration:400;
}

object node:3 {
	phases "ABCD";
	voltage_A +14376.022+0.000j;
	voltage_B -7188.011-12450.000j;
	voltage_C -7188.011+12450.000j;
	nominal_voltage 14376;
	object complex_assert {
		target voltage_AB;
		within 5;
		value +23887+29.2151d ;
	};
	object complex_assert {
		target voltage_BC;
		within 5;
		value +24924.2-90.0323d ;
	};
	object complex_assert {
		target voltage_CA;
		within 5;
		value +24698.9+147.515d ;
	};
}

object overhead_line:34 {
	phases "A";
	from node:3;
	to load:4;
	length 2500;
	configuration line_configuration:301;
}

object load:4 {
	phases "A";
	voltage_A +14376.022+0.000j;
	constant_power_A +1800000.000+871779.789j;
	nominal_voltage 14376;	
	object complex_assert {
		target voltage_AB;
		within 5;
		value +13510.6-4.31444d ;
	};
	object complex_assert {
		target voltage_BC;
		within 5;
		value +0+0d ;
	};
	object complex_assert {
		target voltage_CA;
		within 5;
		value +13510.6+175.686d ;
	};
}

